Version 4
SHEET 1 880 680
WIRE -80 -96 -256 -96
WIRE 144 -96 -80 -96
WIRE 272 -96 224 -96
WIRE 368 -96 272 -96
WIRE 272 -32 272 -96
WIRE -256 0 -256 -96
WIRE -80 16 -80 -96
WIRE -32 16 -80 16
WIRE 208 16 48 16
WIRE 368 16 368 -96
WIRE 208 48 208 16
WIRE 304 64 272 64
WIRE -256 144 -256 80
WIRE -224 144 -256 144
WIRE 208 144 208 112
WIRE 208 144 -224 144
WIRE 368 144 368 112
WIRE 368 144 208 144
WIRE -224 160 -224 144
FLAG -224 160 0
SYMBOL voltage -256 -16 R0
SYMATTR InstName V1
SYMATTR Value 9
SYMBOL cap 192 48 R0
SYMATTR InstName C1
SYMATTR Value 1000µ
SYMBOL res 64 0 R90
WINDOW 0 0 56 VBottom 2
WINDOW 3 32 56 VTop 2
SYMATTR InstName R1
SYMATTR Value 8Mega
SYMBOL npn 208 -32 R0
SYMATTR InstName Q1
SYMATTR Value BC547B
SYMBOL npn 304 16 R0
SYMATTR InstName Q2
SYMATTR Value BC547B
SYMBOL res 240 -112 R90
WINDOW 0 0 56 VBottom 2
WINDOW 3 32 56 VTop 2
SYMATTR InstName R3
SYMATTR Value 10
TEXT -288 184 Left 2 !.tran 3600
TEXT -720 -152 Left 2 !.ic v(n003) = 0
